 &RBCS_PARM01
 rbcsForcingPeriod=0.,
 useRBCtemp=.TRUE.,
 useRBCptracers=.TRUE.,
 tauRelaxT=604800.0,
 relaxMaskFile(1)='../../input/rbcs_temp_relax_mask_005.bin',
 relaxMaskFile(3)='../../input/rbcs_temp_relax_mask_005.bin',
# relaxMaskFile(4)='../../input/rbcs_temp_relax_mask_005.bin',
# relaxMaskFile(5)='../../input/rbcs_temp_relax_mask_005.bin',
# relaxMaskFile(6)='../../input/rbcs_temp_relax_mask_005.bin',
 relaxTFile='../../input/rbcs_temp_relax_1000decay.bin',
 &
 &RBCS_PARM02
#     useRBCptrnum(1)=.TRUE.,
#      tauRelaxPTR(1)=2592000.,
# relaxPtracerFile(1)='../../input/SANT_phos_woa_3Drelax.bin',
#     useRBCptrnum(2)=.TRUE.,
#      tauRelaxPTR(2)=2592000.,
# relaxPtracerFile(2)='../../input/SANT_nitr_woa_3Drelax.bin',
#     useRBCptrnum(3)=.TRUE.,
#      tauRelaxPTR(3)=2592000.,
# relaxPtracerFile(3)='../../input/SANT_fet_geotraces_30d3Drelax.bin',
#     useRBCptrnum(4)=.TRUE.,
#      tauRelaxPTR(4)=2592000.,
# relaxPtracerFile(4)='../../input/SANT_sil_woa_3Drelax.bin',
 & 
